mvpmarch-behavior/feederdata/p1uhs0_1247--p1udt104/Loads_XZ2.dss
!  This code is generated by Xinyang with only primary. 

New Load.TR(R:P1UDT1-P1UDT1LV) Bus1= P1UDT1.1.2.3 Phase=3 Conn=Wye Model=1 kV=7.2 kW=82.5 kvar=17.4
New Load.TR(R:P1UDT2-P1UDT2LV) Bus1= P1UDT2.2 Phase=1 Conn=Wye Model=1 kV=7.2 kW=19.1 kvar=3.9
New Load.TR(R:P1UDT61-P1UDT61LV) Bus1= P1UDT61.1.2.3 Phase=3 Conn=Wye Model=1 kV=7.2 kW=311.3 kvar=68.8
New Load.TR(R:P1UDT62-P1UDT62LV) Bus1= P1UDT62.1.2.3 Phase=3 Conn=Wye Model=1 kV=7.2 kW=73.4 kvar=15.9
New Load.TR(R:P1UDT104-P1UDT104LV) Bus1= P1UDT104.1 Phase=1 Conn=Wye Model=1 kV=7.2 kW=21.9 kvar=4.5
New Load.TR(R:P1UDT175-P1UDT175LV) Bus1= P1UDT175.1.2.3 Phase=3 Conn=Wye Model=1 kV=7.2 kW=209.3 kvar=46.6
New Load.TR(R:P1UDT201-P1UDT201LV) Bus1= P1UDT201.1.2.3 Phase=3 Conn=Wye Model=1 kV=7.2 kW=134.4 kvar=29.6
New Load.TR(R:P1UDT228-P1UDT228LV) Bus1= P1UDT228.1.2.3 Phase=3 Conn=Wye Model=1 kV=7.2 kW=304.3 kvar=67.9
New Load.TR(R:P1UDT258-P1UDT258LV) Bus1= P1UDT258.1.2.3 Phase=3 Conn=Wye Model=1 kV=7.2 kW=62.8 kvar=13.4
New Load.TR(R:P1UDT259-P1UDT259LV) Bus1= P1UDT259.1.2.3 Phase=3 Conn=Wye Model=1 kV=7.2 kW=71.6 kvar=15.5
New Load.TR(R:P1UDT454-P1UDT454LV) Bus1= P1UDT454.1.2.3 Phase=3 Conn=Wye Model=1 kV=7.2 kW=300.1 kvar=67.2
New Load.TR(R:P1UDT471-P1UDT471LV) Bus1= P1UDT471.2 Phase=1 Conn=Wye Model=1 kV=7.2 kW=8.9 kvar=1.8
